[General]
network = SimpleNetwork
record-eventlog = true
sim-time-limit = 200s
